New bar file.

Bug fix in master.

New line.
